@<TRIPOS>MOLECULE
fda
   57    61     1     0     0
SMALL
bcc


@<TRIPOS>ATOM
      1 N           63.1500    78.7420    29.1230 n3         1 fda      -0.725600
      2 N1          66.6720    82.5600    31.0100 nc         1 fda      -0.652300
      3 N2          67.7100    80.6160    29.9390 n          1 fda      -0.372300
      4 N3          62.3250    75.3020    25.7300 nc         1 fda      -0.387200
      5 C           61.8770    78.7640    28.3480 c3         1 fda       0.162800
      6 C1          61.8220    77.6050    27.3310 c3         1 fda      -0.072400
      7 C2          62.0130    76.2520    28.0490 c3         1 fda      -0.079000
      8 C3          63.3370    76.2640    28.8460 c3         1 fda      -0.072400
      9 C4          63.3470    77.4500    29.8320 c3         1 fda       0.162800
     10 C5          63.2720    79.8790    30.0680 c3         1 fda       0.177800
     11 C6          64.3100    79.6220    31.1830 c3         1 fda      -0.023200
     12 C7          65.5350    80.4500    30.8810 cd         1 fda      -0.227400
     13 C8          65.5530    81.8470    31.2590 cc         1 fda       0.189400
     14 C9          64.4340    82.6300    31.9290 c3         1 fda      -0.052900
     15 C10         67.7250    81.9840    30.3970 cd         1 fda       0.501900
     16 C11         68.9030    82.9230    30.1760 c3         1 fda      -0.116700
     17 C12         66.6560    79.7910    30.1810 c          1 fda       0.698700
     18 C13         68.9220    80.0610    29.2950 c3         1 fda       0.084000
     19 C14         69.9350    81.1070    28.7870 c3         1 fda      -0.094400
     20 C15         70.2050    82.1650    29.8690 c3         1 fda      -0.086400
     21 C16         62.0280    75.1340    27.0320 cd         1 fda       0.382900
     22 C17         62.0170    73.1370    26.1690 ca         1 fda       0.069100
     23 C18         61.3130    71.9120    25.8830 ca         1 fda      -0.160000
     24 C19         61.6260    73.8040    27.3640 ca         1 fda      -0.237900
     25 C20         60.3210    71.4500    26.7490 ca         1 fda       0.159900
     26 C21         59.9370    72.1880    27.8720 ca         1 fda      -0.190000
     27 C22         60.5510    73.4070    28.1550 ca         1 fda      -0.035000
     28 O           66.6590    78.6250    29.8370 o          1 fda      -0.652500
     29 O1          62.2430    74.0230    25.1500 os         1 fda      -0.009600
     30 F           59.6940    70.2910    26.4810 f          1 fda      -0.132900
     31 H           59.1690    71.8160    28.5170 ha         1 fda       0.155000
     32 H1          60.2050    74.0220    28.9590 ha         1 fda       0.149000
     33 H2          61.5520    71.3540    25.0020 ha         1 fda       0.173000
     34 H3          61.0540    78.6730    29.0260 h1         1 fda       0.037450
     35 H4          61.8230    79.6880    27.8110 h1         1 fda       0.037450
     36 H5          60.8720    77.6120    26.8390 hc         1 fda       0.059450
     37 H6          62.6070    77.7330    26.6150 hc         1 fda       0.059450
     38 H7          61.2020    76.0940    28.7290 hc         1 fda       0.056700
     39 H8          63.4310    75.3480    29.3920 hc         1 fda       0.059450
     40 H9          64.1560    76.3660    28.1650 hc         1 fda       0.059450
     41 H10         64.2870    77.4720    30.3420 h1         1 fda       0.037450
     42 H11         62.5440    77.3190    30.5270 h1         1 fda       0.037450
     43 H12         63.5680    80.7490    29.5200 h1         1 fda       0.027700
     44 H13         62.3200    80.0110    30.5380 h1         1 fda       0.027700
     45 H14         63.9030    79.9080    32.1310 hc         1 fda       0.061200
     46 H15         64.5640    78.5830    31.2220 hc         1 fda       0.061200
     47 H16         63.5930    81.9870    32.0860 hc         1 fda       0.056700
     48 H17         64.7760    83.0060    32.8700 hc         1 fda       0.056700
     49 H18         64.1460    83.4480    31.3020 hc         1 fda       0.056700
     50 H19         68.6780    83.5680    29.3530 hc         1 fda       0.079200
     51 H20         69.0530    83.4780    31.0790 hc         1 fda       0.079200
     52 H21         69.4200    79.4380    30.0080 h1         1 fda       0.069200
     53 H22         68.5820    79.5330    28.4290 h1         1 fda       0.069200
     54 H23         70.8530    80.6160    28.5380 hc         1 fda       0.058700
     55 H24         69.5290    81.5910    27.9240 hc         1 fda       0.058700
     56 H25         70.9450    82.8540    29.5180 hc         1 fda       0.054200
     57 H26         70.5590    81.6860    30.7580 hc         1 fda       0.054200
@<TRIPOS>BOND
     1     1     5 1   
     2     1     9 1   
     3     1    10 1   
     4     2    13 1   
     5     2    15 2   
     6     3    15 1   
     7     3    17 1   
     8     3    18 1   
     9     4    21 2   
    10     4    29 1   
    11     5     6 1   
    12     5    34 1   
    13     5    35 1   
    14     6     7 1   
    15     6    36 1   
    16     6    37 1   
    17     7     8 1   
    18     7    21 1   
    19     7    38 1   
    20     8     9 1   
    21     8    39 1   
    22     8    40 1   
    23     9    41 1   
    24     9    42 1   
    25    10    11 1   
    26    10    43 1   
    27    10    44 1   
    28    11    12 1   
    29    11    45 1   
    30    11    46 1   
    31    12    13 2   
    32    12    17 1   
    33    13    14 1   
    34    14    47 1   
    35    14    48 1   
    36    14    49 1   
    37    15    16 1   
    38    16    20 1   
    39    16    50 1   
    40    16    51 1   
    41    17    28 2   
    42    18    19 1   
    43    18    52 1   
    44    18    53 1   
    45    19    20 1   
    46    19    54 1   
    47    19    55 1   
    48    20    56 1   
    49    20    57 1   
    50    21    24 1   
    51    22    23 ar  
    52    22    24 ar  
    53    22    29 1   
    54    23    25 ar  
    55    23    33 1   
    56    24    27 ar  
    57    25    26 ar  
    58    25    30 1   
    59    26    27 ar  
    60    26    31 1   
    61    27    32 1   
@<TRIPOS>SUBSTRUCTURE
     1 fda         1 TEMP              0 ****  ****    0 ROOT
